20
REACTANT_ID=15 SMILES=CCCC(C)C ENERGY=-9.433460 kcal/mol
C          1.20247       -0.32581        2.45482
C          0.64681        0.51686        1.31667
C          1.06900        1.98339        1.43526
C          0.54673        2.87115        0.28808
C         -0.98121        2.90867        0.22402
C          1.08557        4.29716        0.44467
H          2.29772       -0.32079        2.45308
H          0.86710       -1.36278        2.35525
H          0.85722        0.04930        3.42391
H          0.99195        0.10664        0.36070
H         -0.44448        0.42897        1.33451
H          0.72443        2.38430        2.39730
H          2.16538        2.03301        1.44992
H          0.92085        2.47216       -0.66217
H         -1.40984        3.26120        1.16818
H         -1.31956        3.57973       -0.57281
H         -1.39789        1.92063        0.00738
H          2.18053        4.30363        0.44968
H          0.75288        4.93169       -0.38322
H          0.73931        4.75214        1.37912