20
REACTANT_ID=3 SMILES=CC(C)CC(N)O ENERGY=0.895400 kcal/mol
C          1.04596       -0.07547        0.02753
C          0.47496       -1.29847       -0.69074
C          0.93295       -2.57663        0.01518
C         -1.06360       -1.26480       -0.76959
C         -1.66146       -0.06213       -1.50848
N         -1.23314        0.01267       -2.88284
O         -3.06053       -0.20042       -1.54493
H          0.64397        0.01112        1.04288
H          0.81384        0.84803       -0.51056
H          2.13774       -0.14248        0.09893
H          0.88643       -1.32434       -1.70687
H          0.56773       -2.61508        1.04711
H          0.56421       -3.46471       -0.50903
H          2.02651       -2.63486        0.03937
H         -1.42212       -2.18965       -1.24430
H         -1.48523       -1.29038        0.24491
H         -1.43217        0.86884       -0.98164
H         -1.66507        0.84172       -3.29135
H         -0.23103        0.18879       -2.91119
H         -3.20759       -0.83315       -2.26913