19
REACTANT_ID=6 SMILES=CNCC(C)C ENERGY=0.000000 kcal/mol
C          1.03028        1.41618       -1.74612
N          0.53468        1.25789       -0.38483
C         -0.92826        1.30442       -0.35213
C         -1.47999        1.10832        1.07235
C         -0.99800        2.19067        2.04309
C         -3.01037        1.09808        1.03348
H          0.69402        2.36158       -2.18460
H          0.70826        0.59029       -2.38800
H          2.12530        1.42980       -1.73813
H          0.85683        0.36660       -0.00979
H         -1.27384        2.26897       -0.74346
H         -1.33421        0.51864       -1.00194
H         -1.14576        0.13396        1.45313
H         -1.28217        3.18997        1.69484
H         -1.43581        2.04256        3.03619
H          0.09030        2.16692        2.15803
H         -3.37809        0.30648        0.37256
H         -3.42610        0.92046        2.03101
H         -3.40424        2.05338        0.66846