20
REACTANT_ID=5 SMILES=CNC(O)C(C)C ENERGY=-7.153100 kcal/mol
C          1.00864        0.10566       -0.03587
N          0.44480       -1.15797       -0.48002
C         -1.00545       -1.19140       -0.45657
O         -1.50102       -0.25084       -1.38927
C         -1.52740       -2.59264       -0.85700
C         -1.02599       -3.69406        0.08194
C         -3.06116       -2.61663       -0.89424
H          0.64857        0.37923        0.96056
H          0.78396        0.91890       -0.73354
H          2.09809        0.01589        0.02140
H          0.74104       -1.34289       -1.43721
H         -1.38742       -0.94010        0.54150
H         -1.41969        0.61799       -0.96589
H         -1.18289       -2.82141       -1.87525
H         -1.34524       -3.51087        1.11359
H         -1.41911       -4.66997       -0.22377
H          0.06603       -3.76631        0.07016
H         -3.45468       -1.89003       -1.61198
H         -3.42553       -3.60424       -1.19696
H         -3.48453       -2.38700        0.08947