18
REACTANT_ID=4 SMILES=CC(C)CNC=O ENERGY=2.434670 kcal/mol
C          1.04033        0.10731        0.04456
C          0.48129       -1.30414        0.23825
C          0.98961       -1.88271        1.56043
C         -1.05553       -1.31765        0.21737
N         -1.60619       -0.82411       -1.02913
C         -1.81683       -1.63515       -2.11305
O         -1.60586       -2.83768       -2.16155
H          0.68449        0.78588        0.82726
H          0.74574        0.52174       -0.92480
H          2.13512        0.09774        0.07744
H          0.85610       -1.93322       -0.57911
H          0.64893       -1.28340        2.41239
H          0.63152       -2.90741        1.70282
H          2.08447       -1.90487        1.58111
H         -1.42089       -2.33879        0.37756
H         -1.46022       -0.68768        1.01669
H         -1.77209        0.16849       -1.13068
H         -2.21371       -1.07126       -2.97276