18
REACTANT_ID=6 SMILES=CC(C)CNC=O ENERGY=-0.371950 kcal/mol
C          1.03391        0.05890        0.10878
C          0.47108       -0.62859       -1.13739
C          0.98029       -2.06936       -1.20848
C         -1.06519       -0.61648       -1.15091
N         -1.61733        0.72304       -1.14788
C         -1.81603        1.43641       -2.30063
O         -1.59271        1.04221       -3.43545
H          0.67594       -0.42344        1.02464
H          0.74412        1.11389        0.14464
H          2.12873        0.01986        0.11147
H          0.84143       -0.08970       -2.01853
H          0.64124       -2.65285       -0.34504
H          0.62074       -2.56641       -2.11541
H          2.07510       -2.09573       -1.22430
H         -1.43394       -1.14016       -2.04136
H         -1.46658       -1.12993       -0.27046
H         -1.78519        1.17990       -0.26089
H         -2.21444        2.44366       -2.09323