18
REACTANT_ID=4 SMILES=CCC(C)NC=O ENERGY=2.567130 kcal/mol
C          0.91958       -1.64290        1.66777
C          0.40772       -0.24229        1.35576
C          0.90567        0.80789        2.36010
C          0.42982        2.20273        1.95279
N          0.44228        0.49707        3.70576
C          1.13167        0.88860        4.82320
O          2.20361        1.47664        4.83633
H          2.01366       -1.67423        1.64851
H          0.54567       -2.35421        0.92421
H          0.58266       -1.98347        2.65154
H          0.73817        0.03220        0.34649
H         -0.68843       -0.26114        1.34145
H          2.00266        0.80928        2.36740
H         -0.66463        2.25623        1.92995
H          0.78032        2.96125        2.66108
H          0.80550        2.47028        0.95950
H         -0.48579        0.11267        3.82775
H          0.60480        0.60261        5.74863