18
REACTANT_ID=7 SMILES=CC(=O)NC(C)C ENERGY=-0.273940 kcal/mol
C         -0.67689        2.26082        0.40339
C          0.06585        1.13067        1.06511
O         -0.09493       -0.04067        0.74301
N          0.93872        1.55186        2.04302
C          1.73601        0.61971        2.82858
C          3.00971        1.30684        3.30934
C          0.94005        0.07528        4.01381
H         -1.31882        1.86582       -0.38730
H          0.03364        2.96413       -0.03936
H         -1.30003        2.77738        1.13996
H          0.91593        2.52376        2.32530
H          2.01031       -0.22108        2.18119
H          2.78063        2.15243        3.96769
H          3.64915        0.60905        3.85900
H          3.58207        1.69672        2.46032
H          0.03010       -0.43422        3.68011
H          1.53795       -0.64400        4.58435
H          0.63805        0.87987        4.69405