20
REACTANT_ID=5 SMILES=CNC(O)C(C)C ENERGY=-7.140810 kcal/mol
C          1.01800        0.06630       -0.21946
N          0.45433       -1.25308       -0.44500
C         -0.99658       -1.28481       -0.41852
O         -1.49455       -0.47179       -1.46449
C         -1.51845       -2.72595       -0.63766
C         -1.01969       -3.70021        0.43410
C         -3.05175       -2.75505       -0.67695
H          0.65847        0.50199        0.71820
H          0.79316        0.75233       -1.04238
H          2.10744       -0.01219       -0.14897
H          0.75175       -1.59225       -1.36028
H         -1.37802       -0.90665        0.53918
H         -1.41744        0.44505       -1.15748
H         -1.17082       -3.08207       -1.61719
H         -1.34497       -3.38952        1.43322
H         -1.40991       -4.70704        0.25060
H          0.07249       -3.77062        0.43727
H         -3.44250       -2.12281       -1.48040
H         -3.41401       -3.77292       -0.85803
H         -3.47873       -2.40676        0.26923