18
REACTANT_ID=5 SMILES=CNC(=O)C(C)C ENERGY=0.071570 kcal/mol
C          0.87018        3.98802        0.28928
N          0.43103        3.19831       -0.83578
C         -0.19802        1.98072       -0.68828
O         -0.40966        1.46290        0.40428
C         -0.63455        1.34918       -2.01224
C          0.56932        1.00372       -2.88780
C         -1.48716        0.10482       -1.76836
H          0.64968        3.50229        1.24304
H          0.35894        4.95378        0.24426
H          1.94633        4.14881        0.19626
H          0.54938        3.58431       -1.76202
H         -1.25467        2.08547       -2.53766
H          1.26180        0.33429       -2.36648
H          0.24962        0.51309       -3.81323
H          1.12870        1.90157       -3.17021
H         -2.39539        0.36350       -1.21270
H         -1.79296       -0.35352       -2.71462
H         -0.94486       -0.64771       -1.18480